/*--------------------------------*- C++ -*----------------------------------*\
  =========                 |
  \\      /  F ield         | OpenFOAM: The Open Source CFD Toolbox
   \\    /   O peration     | Website:  https://openfoam.org
    \\  /    A nd           | Version:  9
     \\/     M anipulation  |
\*---------------------------------------------------------------------------*/
FoamFile
{
    format      binary;
    class       volScalarField;
    location    "0/cell1";
    object      T;
}
// * * * * * * * * * * * * * * * * * * * * * * * * * * * * * * * * * * * * * //

dimensions      [0 0 0 1 0 0 0];

internalField   uniform 300;

boundaryField
{
    walls_cell
    {
        type            zeroGradient;
    }
    cell1_to_fins
    {
        type            compressible::turbulentTemperatureCoupledBaffleMixed;
        Tnbr            T;
        value           uniform 300;
    }
    procBoundary2to0
    {
        type            processor;
        value           uniform 300;
    }
    procBoundary2to1
    {
        type            processor;
        value           uniform 300;
    }
    procBoundary2to3
    {
        type            processor;
        value           uniform 300;
    }
    procBoundary2to4
    {
        type            processor;
        value           uniform 300;
    }
    procBoundary2to5
    {
        type            processor;
        value           uniform 300;
    }
}


// ************************************************************************* //
