/*--------------------------------*- C++ -*----------------------------------*\
  =========                 |
  \\      /  F ield         | OpenFOAM: The Open Source CFD Toolbox
   \\    /   O peration     | Website:  https://openfoam.org
    \\  /    A nd           | Version:  9
     \\/     M anipulation  |
\*---------------------------------------------------------------------------*/
FoamFile
{
    format      binary;
    class       polyBoundaryMesh;
    location    "constant/fins/polyMesh";
    object      boundary;
}
// * * * * * * * * * * * * * * * * * * * * * * * * * * * * * * * * * * * * * //

9
(
    base_fins
    {
        type            patch;
        nFaces          104;
        startFace       6107;
    }
    fins_to_cell3
    {
        type            mappedWall;
        inGroups        List<word> 
2
(
wall
mappedPatch
)
;
        nFaces          0;
        startFace       6211;
        sampleMode      nearestPatchFace;
        sampleRegion    cell3;
        samplePatch     cell3_to_fins;
    }
    fins_to_cell4
    {
        type            mappedWall;
        inGroups        List<word> 
2
(
wall
mappedPatch
)
;
        nFaces          208;
        startFace       6211;
        sampleMode      nearestPatchFace;
        sampleRegion    cell4;
        samplePatch     cell4_to_fins;
    }
    fins_to_cell2
    {
        type            mappedWall;
        inGroups        List<word> 
2
(
wall
mappedPatch
)
;
        nFaces          0;
        startFace       6419;
        sampleMode      nearestPatchFace;
        sampleRegion    cell2;
        samplePatch     cell2_to_fins;
    }
    fins_to_fluid
    {
        type            mappedWall;
        inGroups        List<word> 
2
(
wall
mappedPatch
)
;
        nFaces          768;
        startFace       6419;
        sampleMode      nearestPatchFace;
        sampleRegion    fluid;
        samplePatch     fluid_to_fins;
    }
    fins_to_cell1
    {
        type            mappedWall;
        inGroups        List<word> 
2
(
wall
mappedPatch
)
;
        nFaces          0;
        startFace       7187;
        sampleMode      nearestPatchFace;
        sampleRegion    cell1;
        samplePatch     cell1_to_fins;
    }
    procBoundary5to2
    {
        type            processor;
        inGroups        List<word> 1(processor);
        nFaces          2;
        startFace       7187;
        matchTolerance  0.0001;
        myProcNo        5;
        neighbProcNo    2;
    }
    procBoundary5to3
    {
        type            processor;
        inGroups        List<word> 1(processor);
        nFaces          137;
        startFace       7189;
        matchTolerance  0.0001;
        myProcNo        5;
        neighbProcNo    3;
    }
    procBoundary5to4
    {
        type            processor;
        inGroups        List<word> 1(processor);
        nFaces          75;
        startFace       7326;
        matchTolerance  0.0001;
        myProcNo        5;
        neighbProcNo    4;
    }
)

// ************************************************************************* //
