/*--------------------------------*- C++ -*----------------------------------*\
  =========                 |
  \\      /  F ield         | OpenFOAM: The Open Source CFD Toolbox
   \\    /   O peration     | Website:  https://openfoam.org
    \\  /    A nd           | Version:  9
     \\/     M anipulation  |
\*---------------------------------------------------------------------------*/
FoamFile
{
    format      binary;
    class       polyBoundaryMesh;
    location    "constant/fluid/polyMesh";
    object      boundary;
}
// * * * * * * * * * * * * * * * * * * * * * * * * * * * * * * * * * * * * * //

7
(
    inlet_fluid
    {
        type            patch;
        nFaces          0;
        startFace       12074;
    }
    outlet_fluid
    {
        type            patch;
        nFaces          0;
        startFace       12074;
    }
    walls_fluid
    {
        type            patch;
        nFaces          203;
        startFace       12074;
    }
    fluid_to_fins
    {
        type            mappedWall;
        inGroups        List<word> 
2
(
wall
mappedPatch
)
;
        nFaces          1032;
        startFace       12277;
        sampleMode      nearestPatchFace;
        sampleRegion    fins;
        samplePatch     fins_to_fluid;
    }
    procBoundary2to0
    {
        type            processor;
        inGroups        List<word> 1(processor);
        nFaces          282;
        startFace       13309;
        matchTolerance  0.0001;
        myProcNo        2;
        neighbProcNo    0;
    }
    procBoundary2to3
    {
        type            processor;
        inGroups        List<word> 1(processor);
        nFaces          209;
        startFace       13591;
        matchTolerance  0.0001;
        myProcNo        2;
        neighbProcNo    3;
    }
    procBoundary2to4
    {
        type            processor;
        inGroups        List<word> 1(processor);
        nFaces          266;
        startFace       13800;
        matchTolerance  0.0001;
        myProcNo        2;
        neighbProcNo    4;
    }
)

// ************************************************************************* //
