/*--------------------------------*- C++ -*----------------------------------*\
  =========                 |
  \\      /  F ield         | OpenFOAM: The Open Source CFD Toolbox
   \\    /   O peration     | Website:  https://openfoam.org
    \\  /    A nd           | Version:  9
     \\/     M anipulation  |
\*---------------------------------------------------------------------------*/
FoamFile
{
    format      binary;
    class       volScalarField;
    location    "0/cell4";
    object      cellToRegion;
}
// * * * * * * * * * * * * * * * * * * * * * * * * * * * * * * * * * * * * * //

dimensions      [0 0 0 0 0 0 0];

internalField   uniform 3;

boundaryField
{
    walls_cell
    {
        type            zeroGradient;
    }
    cell4_to_fins
    {
        type            calculated;
        value           uniform 0;
    }
    procBoundary5to2
    {
        type            processor;
        value           uniform 3;
    }
    procBoundary5to3
    {
        type            processor;
        value           uniform 3;
    }
    procBoundary5to4
    {
        type            processor;
        value           uniform 3;
    }
}


// ************************************************************************* //
