/*--------------------------------*- C++ -*----------------------------------*\
  =========                 |
  \\      /  F ield         | OpenFOAM: The Open Source CFD Toolbox
   \\    /   O peration     | Website:  https://openfoam.org
    \\  /    A nd           | Version:  9
     \\/     M anipulation  |
\*---------------------------------------------------------------------------*/
FoamFile
{
    format      binary;
    class       volScalarField;
    location    "0/fluid";
    object      cellToRegion;
}
// * * * * * * * * * * * * * * * * * * * * * * * * * * * * * * * * * * * * * //

dimensions      [0 0 0 0 0 0 0];

internalField   uniform 5;

boundaryField
{
    inlet_fluid
    {
        type            zeroGradient;
    }
    outlet_fluid
    {
        type            zeroGradient;
    }
    walls_fluid
    {
        type            zeroGradient;
    }
    fluid_to_fins
    {
        type            calculated;
        value           uniform 0;
    }
    procBoundary4to2
    {
        type            processor;
        value           uniform 5;
    }
    procBoundary4to3
    {
        type            processor;
        value           uniform 5;
    }
    procBoundary4to5
    {
        type            processor;
        value           uniform 5;
    }
}


// ************************************************************************* //
